dss/export/capas-pablo/cooperativa+urbano-reducido/Transformer.dss
New Transformer.c_idseta_86 phases=3 wdg=1 bus=c_39.1.2.3 kv=13.2 kVA=160.0 wdg=2 bus=c_x_86.1.2.3 kv=0.38 kVA=160.0 %imag=0.5 %loadloss=1.5 %noloadloss=0.25 XHL=2.0 conns=[delta, wye, ] ppm_antifloat=0
New Transformer.c_idseta_87 phases=3 wdg=1 bus=c_105.1.2.3 kv=13.2 kVA=160.0 wdg=2 bus=c_x_87.1.2.3 kv=0.38 kVA=160.0 %imag=0.5 %loadloss=1.5 %noloadloss=0.25 XHL=2.0 conns=[delta, wye, ] ppm_antifloat=0
New Transformer.c_idseta_200 phases=3 wdg=1 bus=c_42.1.2.3 kv=13.2 kVA=200.0 wdg=2 bus=c_x_200.1.2.3 kv=0.38 kVA=200.0 %imag=0.5 %loadloss=1.5 %noloadloss=0.25 XHL=2.0 conns=[delta, wye, ] ppm_antifloat=0
New Transformer.c_idseta_17 phases=3 wdg=1 bus=c_81.1.2.3 kv=13.2 kVA=400.0 wdg=2 bus=c_x_17.1.2.3 kv=0.38 kVA=400.0 %imag=0.5 %loadloss=1.5 %noloadloss=0.25 XHL=2.0 conns=[delta, wye, ] ppm_antifloat=0
New Transformer.c_idseta_50 phases=3 wdg=1 bus=c_57.1.2.3 kv=13.2 kVA=400.0 wdg=2 bus=c_x_50.1.2.3 kv=0.38 kVA=400.0 %imag=0.5 %loadloss=1.5 %noloadloss=0.25 XHL=2.0 conns=[delta, wye, ] ppm_antifloat=0
New Transformer.c_idseta_51 phases=3 wdg=1 bus=c_58.1.2.3 kv=13.2 kVA=315.0 wdg=2 bus=c_x_51.1.2.3 kv=0.38 kVA=315.0 %imag=0.5 %loadloss=1.5 %noloadloss=0.25 XHL=2.0 conns=[delta, wye, ] ppm_antifloat=0
New Transformer.c_idseta_83 phases=3 wdg=1 bus=c_13.1.2.3 kv=13.2 kVA=315.0 wdg=2 bus=c_x_83.1.2.3 kv=0.38 kVA=315.0 %imag=0.5 %loadloss=1.5 %noloadloss=0.25 XHL=2.0 conns=[delta, wye, ] ppm_antifloat=0
New Transformer.c_idseta_378 phases=3 wdg=1 bus=c_68.1.2.3 kv=13.2 kVA=160.0 wdg=2 bus=c_x_378.1.2.3 kv=0.38 kVA=160.0 %imag=0.5 %loadloss=1.5 %noloadloss=0.25 XHL=2.0 conns=[delta, wye, ] ppm_antifloat=0
New Transformer.c_idseta_49 phases=3 wdg=1 bus=c_62.1.2.3 kv=13.2 kVA=315.0 wdg=2 bus=c_x_49.1.2.3 kv=0.38 kVA=315.0 %imag=0.5 %loadloss=1.5 %noloadloss=0.25 XHL=2.0 conns=[delta, wye, ] ppm_antifloat=0
New Transformer.c_idseta_52 phases=3 wdg=1 bus=c_54.1.2.3 kv=13.2 kVA=315.0 wdg=2 bus=c_x_52.1.2.3 kv=0.38 kVA=315.0 %imag=0.5 %loadloss=1.5 %noloadloss=0.25 XHL=2.0 conns=[delta, wye, ] ppm_antifloat=0
New Transformer.c_idseta_53 phases=3 wdg=1 bus=c_71.1.2.3 kv=13.2 kVA=200.0 wdg=2 bus=c_x_53.1.2.3 kv=0.38 kVA=200.0 %imag=0.5 %loadloss=1.5 %noloadloss=0.25 XHL=2.0 conns=[delta, wye, ] ppm_antifloat=0
New Transformer.c_idseta_54 phases=3 wdg=1 bus=c_87.1.2.3 kv=13.2 kVA=315.0 wdg=2 bus=c_x_54.1.2.3 kv=0.38 kVA=315.0 %imag=0.5 %loadloss=1.5 %noloadloss=0.25 XHL=2.0 conns=[delta, wye, ] ppm_antifloat=0
New Transformer.c_idseta_55 phases=3 wdg=1 bus=c_65.1.2.3 kv=13.2 kVA=315.0 wdg=2 bus=c_x_55.1.2.3 kv=0.38 kVA=315.0 %imag=0.5 %loadloss=1.5 %noloadloss=0.25 XHL=2.0 conns=[delta, wye, ] ppm_antifloat=0
New Transformer.c_idseta_56 phases=3 wdg=1 bus=c_47.1.2.3 kv=13.2 kVA=315.0 wdg=2 bus=c_x_56.1.2.3 kv=0.38 kVA=315.0 %imag=0.5 %loadloss=1.5 %noloadloss=0.25 XHL=2.0 conns=[delta, wye, ] ppm_antifloat=0
New Transformer.c_idseta_61 phases=3 wdg=1 bus=c_25.1.2.3 kv=13.2 kVA=250.0 wdg=2 bus=c_x_61.1.2.3 kv=0.38 kVA=250.0 %imag=0.5 %loadloss=1.5 %noloadloss=0.25 XHL=2.0 conns=[delta, wye, ] ppm_antifloat=0
New Transformer.c_idseta_77 phases=3 wdg=1 bus=c_4.1.2.3 kv=13.2 kVA=200.0 wdg=2 bus=c_x_77.1.2.3 kv=0.38 kVA=200.0 %imag=0.5 %loadloss=1.5 %noloadloss=0.25 XHL=2.0 conns=[delta, wye, ] ppm_antifloat=0
New Transformer.c_idseta_78 phases=3 wdg=1 bus=c_75.1.2.3 kv=13.2 kVA=200.0 wdg=2 bus=c_x_78.1.2.3 kv=0.38 kVA=200.0 %imag=0.5 %loadloss=1.5 %noloadloss=0.25 XHL=2.0 conns=[delta, wye, ] ppm_antifloat=0
New Transformer.c_idseta_58 phases=3 wdg=1 bus=c_7.1.2.3 kv=13.2 kVA=160.0 wdg=2 bus=c_x_58.1.2.3 kv=0.38 kVA=160.0 %imag=0.5 %loadloss=1.5 %noloadloss=0.25 XHL=2.0 conns=[delta, wye, ] ppm_antifloat=0
New Transformer.c_idseta_88 phases=3 wdg=1 bus=c_93.1.2.3 kv=13.2 kVA=75.0 wdg=2 bus=c_x_88.1.2.3 kv=0.38 kVA=75.0 %imag=0.5 %loadloss=1.5 %noloadloss=0.25 XHL=2.0 conns=[delta, wye, ] ppm_antifloat=0
New Transformer.c_idseta_97 phases=3 wdg=1 bus=c_83.1.2.3 kv=13.2 kVA=160.0 wdg=2 bus=c_x_97.1.2.3 kv=0.38 kVA=160.0 %imag=0.5 %loadloss=1.5 %noloadloss=0.25 XHL=2.0 conns=[delta, wye, ] ppm_antifloat=0
New Transformer.c_idseta_113 phases=3 wdg=1 bus=c_99.1.2.3 kv=13.2 kVA=315.0 wdg=2 bus=c_x_113.1.2.3 kv=0.38 kVA=315.0 %imag=0.5 %loadloss=1.5 %noloadloss=0.25 XHL=2.0 conns=[delta, wye, ] ppm_antifloat=0
New Transformer.c_idseta_6005 phases=3 wdg=1 bus=c_44.1.2.3 kv=13.2 kVA=400.0 wdg=2 bus=c_x_6005.1.2.3 kv=0.38 kVA=400.0 %imag=0.5 %loadloss=1.5 %noloadloss=0.25 XHL=2.0 conns=[delta, wye, ] ppm_antifloat=0
New Transformer.c_idseta_18 phases=3 wdg=1 bus=c_28.1.2.3 kv=13.2 kVA=200.0 wdg=2 bus=c_x_18.1.2.3 kv=0.38 kVA=200.0 %imag=0.5 %loadloss=1.5 %noloadloss=0.25 XHL=2.0 conns=[delta, wye, ] ppm_antifloat=0
New Transformer.c_idseta_62 phases=3 wdg=1 bus=c_38.1.2.3 kv=13.2 kVA=315.0 wdg=2 bus=c_x_62.1.2.3 kv=0.38 kVA=315.0 %imag=0.5 %loadloss=1.5 %noloadloss=0.25 XHL=2.0 conns=[delta, wye, ] ppm_antifloat=0
New Transformer.c_idseta_63 phases=3 wdg=1 bus=c_41.1.2.3 kv=13.2 kVA=160.0 wdg=2 bus=c_x_63.1.2.3 kv=0.38 kVA=160.0 %imag=0.5 %loadloss=1.5 %noloadloss=0.25 XHL=2.0 conns=[delta, wye, ] ppm_antifloat=0
New Transformer.c_idseta_65 phases=3 wdg=1 bus=c_10.1.2.3 kv=13.2 kVA=200.0 wdg=2 bus=c_x_65.1.2.3 kv=0.38 kVA=200.0 %imag=0.5 %loadloss=1.5 %noloadloss=0.25 XHL=2.0 conns=[delta, wye, ] ppm_antifloat=0
New Transformer.c_idseta_68 phases=3 wdg=1 bus=c_52.1.2.3 kv=13.2 kVA=160.0 wdg=2 bus=c_x_68.1.2.3 kv=0.38 kVA=160.0 %imag=0.5 %loadloss=1.5 %noloadloss=0.25 XHL=2.0 conns=[delta, wye, ] ppm_antifloat=0
New Transformer.c_idseta_73 phases=3 wdg=1 bus=c_2.1.2.3 kv=13.2 kVA=100.0 wdg=2 bus=c_x_73.1.2.3 kv=0.38 kVA=100.0 %imag=0.5 %loadloss=1.5 %noloadloss=0.25 XHL=2.0 conns=[delta, wye, ] ppm_antifloat=0
New Transformer.c_idseta_114 phases=3 wdg=1 bus=c_101.1.2.3 kv=13.2 kVA=315.0 wdg=2 bus=c_x_114.1.2.3 kv=0.38 kVA=315.0 %imag=0.5 %loadloss=1.5 %noloadloss=0.25 XHL=2.0 conns=[delta, wye, ] ppm_antifloat=0
New Transformer.c_idseta_90 phases=3 wdg=1 bus=c_76.1.2.3 kv=13.2 kVA=160.0 wdg=2 bus=c_x_90.1.2.3 kv=0.38 kVA=160.0 %imag=0.5 %loadloss=1.5 %noloadloss=0.25 XHL=2.0 conns=[delta, wye, ] ppm_antifloat=0
New Transformer.u_idseta_10 phases=3 wdg=1 bus=u_22.1.2.3 kv=13.2 kVA=200.0 wdg=2 bus=u_x_10.1.2.3 kv=0.38 kVA=200.0 %imag=0.5 %loadloss=1.5 %noloadloss=0.25 XHL=2.0 conns=[delta, wye, ] ppm_antifloat=0
New Transformer.u_idseta_79 phases=3 wdg=1 bus=u_33.1.2.3 kv=13.2 kVA=125.0 wdg=2 bus=u_x_79.1.2.3 kv=0.38 kVA=125.0 %imag=0.5 %loadloss=1.5 %noloadloss=0.25 XHL=2.0 conns=[delta, wye, ] ppm_antifloat=0
New Transformer.u_idseta_80 phases=3 wdg=1 bus=u_71.1.2.3 kv=13.2 kVA=200.0 wdg=2 bus=u_x_80.1.2.3 kv=0.38 kVA=200.0 %imag=0.5 %loadloss=1.5 %noloadloss=0.25 XHL=2.0 conns=[delta, wye, ] ppm_antifloat=0
New Transformer.u_idseta_84 phases=3 wdg=1 bus=u_47.1.2.3 kv=13.2 kVA=100.0 wdg=2 bus=u_x_84.1.2.3 kv=0.38 kVA=100.0 %imag=0.5 %loadloss=1.5 %noloadloss=0.25 XHL=2.0 conns=[delta, wye, ] ppm_antifloat=0
New Transformer.u_idseta_14 phases=3 wdg=1 bus=u_69.1.2.3 kv=13.2 kVA=315.0 wdg=2 bus=u_x_14.1.2.3 kv=0.38 kVA=315.0 %imag=0.5 %loadloss=1.5 %noloadloss=0.25 XHL=2.0 conns=[delta, wye, ] ppm_antifloat=0
New Transformer.u_idseta_15 phases=3 wdg=1 bus=u_75.1.2.3 kv=13.2 kVA=315.0 wdg=2 bus=u_x_15.1.2.3 kv=0.38 kVA=315.0 %imag=0.5 %loadloss=1.5 %noloadloss=0.25 XHL=2.0 conns=[delta, wye, ] ppm_antifloat=0
New Transformer.u_idseta_81 phases=3 wdg=1 bus=u_73.1.2.3 kv=13.2 kVA=400.0 wdg=2 bus=u_x_81.1.2.3 kv=0.38 kVA=400.0 %imag=0.5 %loadloss=1.5 %noloadloss=0.25 XHL=2.0 conns=[delta, wye, ] ppm_antifloat=0
New Transformer.u_idseta_82 phases=3 wdg=1 bus=u_136.1.2.3 kv=13.2 kVA=315.0 wdg=2 bus=u_x_82.1.2.3 kv=0.38 kVA=315.0 %imag=0.5 %loadloss=1.5 %noloadloss=0.25 XHL=2.0 conns=[delta, wye, ] ppm_antifloat=0
New Transformer.u_idseta_335 phases=3 wdg=1 bus=u_86.1.2.3 kv=13.2 kVA=315.0 wdg=2 bus=u_x_335.1.2.3 kv=0.38 kVA=315.0 %imag=0.5 %loadloss=1.5 %noloadloss=0.25 XHL=2.0 conns=[delta, wye, ] ppm_antifloat=0
New Transformer.u_idseta_3022 phases=3 wdg=1 bus=u_127.1.2.3 kv=13.2 kVA=63.0 wdg=2 bus=u_x_3022.1.2.3 kv=0.38 kVA=63.0 %imag=0.5 %loadloss=1.5 %noloadloss=0.25 XHL=2.0 conns=[delta, wye, ] ppm_antifloat=0
New Transformer.u_idseta_12 phases=3 wdg=1 bus=u_28.1.2.3 kv=13.2 kVA=315.0 wdg=2 bus=u_x_12.1.2.3 kv=0.38 kVA=315.0 %imag=0.5 %loadloss=1.5 %noloadloss=0.25 XHL=2.0 conns=[delta, wye, ] ppm_antifloat=0
New Transformer.u_idseta_13 phases=3 wdg=1 bus=u_30.1.2.3 kv=13.2 kVA=315.0 wdg=2 bus=u_x_13.1.2.3 kv=0.38 kVA=315.0 %imag=0.5 %loadloss=1.5 %noloadloss=0.25 XHL=2.0 conns=[delta, wye, ] ppm_antifloat=0
New Transformer.u_idseta_60 phases=3 wdg=1 bus=u_78.1.2.3 kv=13.2 kVA=200.0 wdg=2 bus=u_x_60.1.2.3 kv=0.38 kVA=200.0 %imag=0.5 %loadloss=1.5 %noloadloss=0.25 XHL=2.0 conns=[delta, wye, ] ppm_antifloat=0
New Transformer.u_idseta_47 phases=3 wdg=1 bus=u_88.1.2.3 kv=13.2 kVA=100.0 wdg=2 bus=u_x_47.1.2.3 kv=0.38 kVA=100.0 %imag=0.5 %loadloss=1.5 %noloadloss=0.25 XHL=2.0 conns=[delta, wye, ] ppm_antifloat=0
New Transformer.u_idseta_3009 phases=3 wdg=1 bus=u_4.1.2.3 kv=13.2 kVA=315.0 wdg=2 bus=u_x_3009.1.2.3 kv=0.38 kVA=315.0 %imag=0.5 %loadloss=1.5 %noloadloss=0.25 XHL=2.0 conns=[delta, wye, ] ppm_antifloat=0
New Transformer.u_idseta_57 phases=3 wdg=1 bus=u_67.1.2.3 kv=13.2 kVA=315.0 wdg=2 bus=u_x_57.1.2.3 kv=0.38 kVA=315.0 %imag=0.5 %loadloss=1.5 %noloadloss=0.25 XHL=2.0 conns=[delta, wye, ] ppm_antifloat=0
New Transformer.u_idseta_59 phases=3 wdg=1 bus=u_79.1.2.3 kv=13.2 kVA=315.0 wdg=2 bus=u_x_59.1.2.3 kv=0.38 kVA=315.0 %imag=0.5 %loadloss=1.5 %noloadloss=0.25 XHL=2.0 conns=[delta, wye, ] ppm_antifloat=0
New Transformer.u_idseta_71 phases=3 wdg=1 bus=u_32.1.2.3 kv=13.2 kVA=200.0 wdg=2 bus=u_x_71.1.2.3 kv=0.38 kVA=200.0 %imag=0.5 %loadloss=1.5 %noloadloss=0.25 XHL=2.0 conns=[delta, wye, ] ppm_antifloat=0
New Transformer.u_idseta_72 phases=3 wdg=1 bus=u_9.1.2.3 kv=13.2 kVA=200.0 wdg=2 bus=u_x_72.1.2.3 kv=0.38 kVA=200.0 %imag=0.5 %loadloss=1.5 %noloadloss=0.25 XHL=2.0 conns=[delta, wye, ] ppm_antifloat=0
New Transformer.u_idseta_75 phases=3 wdg=1 bus=u_21.1.2.3 kv=13.2 kVA=100.0 wdg=2 bus=u_x_75.1.2.3 kv=0.38 kVA=100.0 %imag=0.5 %loadloss=1.5 %noloadloss=0.25 XHL=2.0 conns=[delta, wye, ] ppm_antifloat=0
New Transformer.u_idseta_76 phases=3 wdg=1 bus=u_53.1.2.3 kv=13.2 kVA=315.0 wdg=2 bus=u_x_76.1.2.3 kv=0.38 kVA=315.0 %imag=0.5 %loadloss=1.5 %noloadloss=0.25 XHL=2.0 conns=[delta, wye, ] ppm_antifloat=0
New Transformer.u_idseta_840 phases=3 wdg=1 bus=u_13.1.2.3 kv=13.2 kVA=160.0 wdg=2 bus=u_x_840.1.2.3 kv=0.38 kVA=160.0 %imag=0.5 %loadloss=1.5 %noloadloss=0.25 XHL=2.0 conns=[delta, wye, ] ppm_antifloat=0
New Transformer.u_idseta_2943 phases=3 wdg=1 bus=u_119.1.2.3 kv=13.2 kVA=200.0 wdg=2 bus=u_x_2943.1.2.3 kv=0.38 kVA=200.0 %imag=0.5 %loadloss=1.5 %noloadloss=0.25 XHL=2.0 conns=[delta, wye, ] ppm_antifloat=0
New Transformer.u_idseta_116 phases=3 wdg=1 bus=u_109.1.2.3 kv=13.2 kVA=75.0 wdg=2 bus=u_x_116.1.2.3 kv=0.38 kVA=75.0 %imag=0.5 %loadloss=1.5 %noloadloss=0.25 XHL=2.0 conns=[delta, wye, ] ppm_antifloat=0
New Transformer.u_idseta_132 phases=3 wdg=1 bus=u_130.1.2.3 kv=13.2 kVA=315.0 wdg=2 bus=u_x_132.1.2.3 kv=0.38 kVA=315.0 %imag=0.5 %loadloss=1.5 %noloadloss=0.25 XHL=2.0 conns=[delta, wye, ] ppm_antifloat=0
New Transformer.u_idseta_131 phases=3 wdg=1 bus=u_131.1.2.3 kv=13.2 kVA=160.0 wdg=2 bus=u_x_131.1.2.3 kv=0.38 kVA=160.0 %imag=0.5 %loadloss=1.5 %noloadloss=0.25 XHL=2.0 conns=[delta, wye, ] ppm_antifloat=0
New Transformer.u_idseta_130 phases=3 wdg=1 bus=u_132.1.2.3 kv=13.2 kVA=160.0 wdg=2 bus=u_x_130.1.2.3 kv=0.38 kVA=160.0 %imag=0.5 %loadloss=1.5 %noloadloss=0.25 XHL=2.0 conns=[delta, wye, ] ppm_antifloat=0
New Transformer.u_idseta_129 phases=3 wdg=1 bus=u_117.1.2.3 kv=13.2 kVA=160.0 wdg=2 bus=u_x_129.1.2.3 kv=0.38 kVA=160.0 %imag=0.5 %loadloss=1.5 %noloadloss=0.25 XHL=2.0 conns=[delta, wye, ] ppm_antifloat=0
New Transformer.u_idseta_128 phases=3 wdg=1 bus=u_134.1.2.3 kv=13.2 kVA=315.0 wdg=2 bus=u_x_128.1.2.3 kv=0.38 kVA=315.0 %imag=0.5 %loadloss=1.5 %noloadloss=0.25 XHL=2.0 conns=[delta, wye, ] ppm_antifloat=0
New Transformer.u_idseta_3 phases=3 wdg=1 bus=u_60.1.2.3 kv=13.2 kVA=315.0 wdg=2 bus=u_x_3.1.2.3 kv=0.38 kVA=315.0 %imag=0.5 %loadloss=1.5 %noloadloss=0.25 XHL=2.0 conns=[delta, wye, ] ppm_antifloat=0
New Transformer.u_idseta_6 phases=3 wdg=1 bus=u_7.1.2.3 kv=13.2 kVA=250.0 wdg=2 bus=u_x_6.1.2.3 kv=0.38 kVA=250.0 %imag=0.5 %loadloss=1.5 %noloadloss=0.25 XHL=2.0 conns=[delta, wye, ] ppm_antifloat=0
New Transformer.u_idseta_7 phases=3 wdg=1 bus=u_59.1.2.3 kv=13.2 kVA=400.0 wdg=2 bus=u_x_7.1.2.3 kv=0.38 kVA=400.0 %imag=0.5 %loadloss=1.5 %noloadloss=0.25 XHL=2.0 conns=[delta, wye, ] ppm_antifloat=0
New Transformer.u_idseta_8 phases=3 wdg=1 bus=u_49.1.2.3 kv=13.2 kVA=160.0 wdg=2 bus=u_x_8.1.2.3 kv=0.38 kVA=160.0 %imag=0.5 %loadloss=1.5 %noloadloss=0.25 XHL=2.0 conns=[delta, wye, ] ppm_antifloat=0
New Transformer.u_idseta_9 phases=3 wdg=1 bus=u_37.1.2.3 kv=13.2 kVA=250.0 wdg=2 bus=u_x_9.1.2.3 kv=0.38 kVA=250.0 %imag=0.5 %loadloss=1.5 %noloadloss=0.25 XHL=2.0 conns=[delta, wye, ] ppm_antifloat=0
New Transformer.u_idseta_69 phases=3 wdg=1 bus=u_34.1.2.3 kv=13.2 kVA=315.0 wdg=2 bus=u_x_69.1.2.3 kv=0.38 kVA=315.0 %imag=0.5 %loadloss=1.5 %noloadloss=0.25 XHL=2.0 conns=[delta, wye, ] ppm_antifloat=0
New Transformer.u_idseta_70 phases=3 wdg=1 bus=u_135.1.2.3 kv=13.2 kVA=315.0 wdg=2 bus=u_x_70.1.2.3 kv=0.38 kVA=315.0 %imag=0.5 %loadloss=1.5 %noloadloss=0.25 XHL=2.0 conns=[delta, wye, ] ppm_antifloat=0
New Transformer.u_idseta_74 phases=3 wdg=1 bus=u_108.1.2.3 kv=13.2 kVA=160.0 wdg=2 bus=u_x_74.1.2.3 kv=0.38 kVA=160.0 %imag=0.5 %loadloss=1.5 %noloadloss=0.25 XHL=2.0 conns=[delta, wye, ] ppm_antifloat=0
New Transformer.u_idseta_91 phases=3 wdg=1 bus=u_56.1.2.3 kv=13.2 kVA=200.0 wdg=2 bus=u_x_91.1.2.3 kv=0.38 kVA=200.0 %imag=0.5 %loadloss=1.5 %noloadloss=0.25 XHL=2.0 conns=[delta, wye, ] ppm_antifloat=0
New Transformer.u_idseta_89 phases=3 wdg=1 bus=u_11.1.2.3 kv=13.2 kVA=200.0 wdg=2 bus=u_x_89.1.2.3 kv=0.38 kVA=200.0 %imag=0.5 %loadloss=1.5 %noloadloss=0.25 XHL=2.0 conns=[delta, wye, ] ppm_antifloat=0
New Transformer.u_idseta_93 phases=3 wdg=1 bus=u_63.1.2.3 kv=13.2 kVA=63.0 wdg=2 bus=u_x_93.1.2.3 kv=0.38 kVA=63.0 %imag=0.5 %loadloss=1.5 %noloadloss=0.25 XHL=2.0 conns=[delta, wye, ] ppm_antifloat=0
New Transformer.u_idseta_92 phases=3 wdg=1 bus=u_65.1.2.3 kv=13.2 kVA=63.0 wdg=2 bus=u_x_92.1.2.3 kv=0.38 kVA=63.0 %imag=0.5 %loadloss=1.5 %noloadloss=0.25 XHL=2.0 conns=[delta, wye, ] ppm_antifloat=0
New Transformer.u_idseta_96 phases=3 wdg=1 bus=u_97.1.2.3 kv=13.2 kVA=315.0 wdg=2 bus=u_x_96.1.2.3 kv=0.38 kVA=315.0 %imag=0.5 %loadloss=1.5 %noloadloss=0.25 XHL=2.0 conns=[delta, wye, ] ppm_antifloat=0
